 INFO
nunit      1    1    1
unit   cell
celltype   convcell
shape   parapipedal
 END_INFO
 DIM-GROUP
           3           9
 PRIMVEC
    3.3270700000    0.0000000000    0.0000000000
   -1.6635350000    2.8813271400    0.0000000000
    0.0000000000    0.0000000000   15.0690000000
 CONVVEC
    3.3270700000    0.0000000000    0.0000000000
   -1.6635350000    2.8813271400    0.0000000000
    0.0000000000    0.0000000000   15.0690000000
 PRIMCOORD
           3           1
 74      1.6635350000     0.9604420000     7.5478820000
 34     -0.0000000000     1.9208840000     9.2291100000
 34     -0.0000000000     1.9208840000     5.8666540000
 CONVCOORD
           3           1
 74      1.6635350000     0.9604420000     7.5478820000
 34      0.0000000000     1.9208840000     9.2291100000
 34      0.0000000000     1.9208840000     5.8666540000
 RECIP-PRIMVEC
    0.3005647612    0.1735311458   -0.0000000000

    0.0000000000    0.3470622916    0.0000000000

    0.0000000000   -0.0000000000    0.0663614042

 RECIP-CONVVEC
    0.3005647612    0.1735311458   -0.0000000000

    0.0000000000    0.3470622916    0.0000000000

    0.0000000000   -0.0000000000    0.0663614042

 WIGNER-SEITZ-PRIMCELL
           4
 -0.1663535E+01 -0.9604424E+00  0.7534500E+01  -0.5000000E+00 -0.8660254E+00 -0.1150657E-15
 -0.1663535E+01 -0.9604424E+00 -0.7534500E+01  -0.5000000E+00 -0.8660254E+00 -0.1150657E-15
 -0.0000000E+00 -0.1920885E+01 -0.7534500E+01  -0.5000000E+00 -0.8660254E+00 -0.1150657E-15
  0.6295949E-14 -0.1920885E+01  0.7534500E+01  -0.5000000E+00 -0.8660254E+00 -0.1150657E-15
           4
 -0.1663535E+01  0.9604424E+00  0.7534500E+01  -0.1000000E+01  0.0000000E+00  0.0000000E+00
 -0.1663535E+01  0.9604424E+00 -0.7534500E+01  -0.1000000E+01  0.0000000E+00  0.0000000E+00
 -0.1663535E+01 -0.9604424E+00 -0.7534500E+01  -0.1000000E+01  0.0000000E+00  0.0000000E+00
 -0.1663535E+01 -0.9604424E+00  0.7534500E+01  -0.1000000E+01  0.0000000E+00  0.0000000E+00
           4
 -0.4328465E-14 -0.1920885E+01  0.7534500E+01   0.5000000E+00 -0.8660254E+00  0.1534209E-16
 -0.0000000E+00 -0.1920885E+01 -0.7534500E+01   0.5000000E+00 -0.8660254E+00  0.1534209E-16
  0.1663535E+01 -0.9604424E+00 -0.7534500E+01   0.5000000E+00 -0.8660254E+00  0.1534209E-16
  0.1663535E+01 -0.9604424E+00  0.7534500E+01   0.5000000E+00 -0.8660254E+00  0.1534209E-16
           6
 -0.1663535E+01 -0.9604424E+00 -0.7534500E+01  -0.5559004E-15  0.0000000E+00 -0.1000000E+01
 -0.1663535E+01  0.9604424E+00 -0.7534500E+01  -0.5559004E-15  0.0000000E+00 -0.1000000E+01
  0.0000000E+00  0.1920885E+01 -0.7534500E+01  -0.5559004E-15  0.0000000E+00 -0.1000000E+01
  0.1663535E+01  0.9604424E+00 -0.7534500E+01  -0.5559004E-15  0.0000000E+00 -0.1000000E+01
  0.1663535E+01 -0.9604424E+00 -0.7534500E+01  -0.5559004E-15  0.0000000E+00 -0.1000000E+01
 -0.0000000E+00 -0.1920885E+01 -0.7534500E+01  -0.5559004E-15  0.0000000E+00 -0.1000000E+01
           6
  0.0000000E+00 -0.1920885E+01  0.7534500E+01  -0.1111801E-14 -0.0000000E+00  0.1000000E+01
  0.1663535E+01 -0.9604424E+00  0.7534500E+01  -0.1111801E-14 -0.0000000E+00  0.1000000E+01
  0.1663535E+01  0.9604424E+00  0.7534500E+01  -0.1111801E-14 -0.0000000E+00  0.1000000E+01
 -0.0000000E+00  0.1920885E+01  0.7534500E+01  -0.1111801E-14 -0.0000000E+00  0.1000000E+01
 -0.1663535E+01  0.9604424E+00  0.7534500E+01  -0.1111801E-14 -0.0000000E+00  0.1000000E+01
 -0.1663535E+01 -0.9604424E+00  0.7534500E+01  -0.1111801E-14 -0.0000000E+00  0.1000000E+01
           4
 -0.1663535E+01  0.9604424E+00  0.7534500E+01  -0.5000000E+00  0.8660254E+00  0.0000000E+00
 -0.0000000E+00  0.1920885E+01  0.7534500E+01  -0.5000000E+00  0.8660254E+00  0.0000000E+00
 -0.0000000E+00  0.1920885E+01 -0.7534500E+01  -0.5000000E+00  0.8660254E+00  0.0000000E+00
 -0.1663535E+01  0.9604424E+00 -0.7534500E+01  -0.5000000E+00  0.8660254E+00  0.0000000E+00
           4
  0.1663535E+01 -0.9604424E+00  0.7534500E+01   0.1000000E+01 -0.0000000E+00 -0.0000000E+00
  0.1663535E+01 -0.9604424E+00 -0.7534500E+01   0.1000000E+01 -0.0000000E+00 -0.0000000E+00
  0.1663535E+01  0.9604424E+00 -0.7534500E+01   0.1000000E+01 -0.0000000E+00 -0.0000000E+00
  0.1663535E+01  0.9604424E+00  0.7534500E+01   0.1000000E+01 -0.0000000E+00 -0.0000000E+00
           4
  0.1967484E-14  0.1920885E+01  0.7534500E+01   0.5000000E+00  0.8660254E+00  0.1378602E-15
  0.1663535E+01  0.9604424E+00  0.7534500E+01   0.5000000E+00  0.8660254E+00  0.1378602E-15
  0.1663535E+01  0.9604424E+00 -0.7534500E+01   0.5000000E+00  0.8660254E+00  0.1378602E-15
 -0.0000000E+00  0.1920885E+01 -0.7534500E+01   0.5000000E+00  0.8660254E+00  0.1378602E-15
 WIGNER-SEITZ-PRIMCELL_END
 WIGNER-SEITZ-CONVCELL
           4
 -0.1663535E+01 -0.9604424E+00  0.7534500E+01  -0.5000000E+00 -0.8660254E+00 -0.1150657E-15
 -0.1663535E+01 -0.9604424E+00 -0.7534500E+01  -0.5000000E+00 -0.8660254E+00 -0.1150657E-15
 -0.0000000E+00 -0.1920885E+01 -0.7534500E+01  -0.5000000E+00 -0.8660254E+00 -0.1150657E-15
  0.6295949E-14 -0.1920885E+01  0.7534500E+01  -0.5000000E+00 -0.8660254E+00 -0.1150657E-15
           4
 -0.1663535E+01  0.9604424E+00  0.7534500E+01  -0.1000000E+01  0.0000000E+00  0.0000000E+00
 -0.1663535E+01  0.9604424E+00 -0.7534500E+01  -0.1000000E+01  0.0000000E+00  0.0000000E+00
 -0.1663535E+01 -0.9604424E+00 -0.7534500E+01  -0.1000000E+01  0.0000000E+00  0.0000000E+00
 -0.1663535E+01 -0.9604424E+00  0.7534500E+01  -0.1000000E+01  0.0000000E+00  0.0000000E+00
           4
 -0.4328465E-14 -0.1920885E+01  0.7534500E+01   0.5000000E+00 -0.8660254E+00  0.1534209E-16
 -0.0000000E+00 -0.1920885E+01 -0.7534500E+01   0.5000000E+00 -0.8660254E+00  0.1534209E-16
  0.1663535E+01 -0.9604424E+00 -0.7534500E+01   0.5000000E+00 -0.8660254E+00  0.1534209E-16
  0.1663535E+01 -0.9604424E+00  0.7534500E+01   0.5000000E+00 -0.8660254E+00  0.1534209E-16
           6
 -0.1663535E+01 -0.9604424E+00 -0.7534500E+01  -0.5559004E-15  0.0000000E+00 -0.1000000E+01
 -0.1663535E+01  0.9604424E+00 -0.7534500E+01  -0.5559004E-15  0.0000000E+00 -0.1000000E+01
  0.0000000E+00  0.1920885E+01 -0.7534500E+01  -0.5559004E-15  0.0000000E+00 -0.1000000E+01
  0.1663535E+01  0.9604424E+00 -0.7534500E+01  -0.5559004E-15  0.0000000E+00 -0.1000000E+01
  0.1663535E+01 -0.9604424E+00 -0.7534500E+01  -0.5559004E-15  0.0000000E+00 -0.1000000E+01
 -0.0000000E+00 -0.1920885E+01 -0.7534500E+01  -0.5559004E-15  0.0000000E+00 -0.1000000E+01
           6
  0.0000000E+00 -0.1920885E+01  0.7534500E+01  -0.1111801E-14 -0.0000000E+00  0.1000000E+01
  0.1663535E+01 -0.9604424E+00  0.7534500E+01  -0.1111801E-14 -0.0000000E+00  0.1000000E+01
  0.1663535E+01  0.9604424E+00  0.7534500E+01  -0.1111801E-14 -0.0000000E+00  0.1000000E+01
 -0.0000000E+00  0.1920885E+01  0.7534500E+01  -0.1111801E-14 -0.0000000E+00  0.1000000E+01
 -0.1663535E+01  0.9604424E+00  0.7534500E+01  -0.1111801E-14 -0.0000000E+00  0.1000000E+01
 -0.1663535E+01 -0.9604424E+00  0.7534500E+01  -0.1111801E-14 -0.0000000E+00  0.1000000E+01
           4
 -0.1663535E+01  0.9604424E+00  0.7534500E+01  -0.5000000E+00  0.8660254E+00  0.0000000E+00
 -0.0000000E+00  0.1920885E+01  0.7534500E+01  -0.5000000E+00  0.8660254E+00  0.0000000E+00
 -0.0000000E+00  0.1920885E+01 -0.7534500E+01  -0.5000000E+00  0.8660254E+00  0.0000000E+00
 -0.1663535E+01  0.9604424E+00 -0.7534500E+01  -0.5000000E+00  0.8660254E+00  0.0000000E+00
           4
  0.1663535E+01 -0.9604424E+00  0.7534500E+01   0.1000000E+01 -0.0000000E+00 -0.0000000E+00
  0.1663535E+01 -0.9604424E+00 -0.7534500E+01   0.1000000E+01 -0.0000000E+00 -0.0000000E+00
  0.1663535E+01  0.9604424E+00 -0.7534500E+01   0.1000000E+01 -0.0000000E+00 -0.0000000E+00
  0.1663535E+01  0.9604424E+00  0.7534500E+01   0.1000000E+01 -0.0000000E+00 -0.0000000E+00
           4
  0.1967484E-14  0.1920885E+01  0.7534500E+01   0.5000000E+00  0.8660254E+00  0.1378602E-15
  0.1663535E+01  0.9604424E+00  0.7534500E+01   0.5000000E+00  0.8660254E+00  0.1378602E-15
  0.1663535E+01  0.9604424E+00 -0.7534500E+01   0.5000000E+00  0.8660254E+00  0.1378602E-15
 -0.0000000E+00  0.1920885E+01 -0.7534500E+01   0.5000000E+00  0.8660254E+00  0.1378602E-15
 WIGNER-SEITZ-CONVCELL_END
 BRILLOUIN-ZONE-PRIMCELL
           4
 -0.2003765E+00  0.3132414E-16 -0.3318070E-01  -0.8660254E+00 -0.5000000E+00 -0.0000000E+00
 -0.1001883E+00 -0.1735311E+00 -0.3318070E-01  -0.8660254E+00 -0.5000000E+00 -0.0000000E+00
 -0.1001883E+00 -0.1735311E+00  0.3318070E-01  -0.8660254E+00 -0.5000000E+00 -0.0000000E+00
 -0.2003765E+00  0.3132414E-16  0.3318070E-01  -0.8660254E+00 -0.5000000E+00 -0.0000000E+00
           4
 -0.1001883E+00  0.1735311E+00  0.3318070E-01  -0.8660254E+00  0.5000000E+00  0.2360118E-15
 -0.1001883E+00  0.1735311E+00 -0.3318070E-01  -0.8660254E+00  0.5000000E+00  0.2360118E-15
 -0.2003765E+00  0.3132414E-16 -0.3318070E-01  -0.8660254E+00  0.5000000E+00  0.2360118E-15
 -0.2003765E+00 -0.0000000E+00  0.3318070E-01  -0.8660254E+00  0.5000000E+00  0.2360118E-15
           4
 -0.1001883E+00 -0.1735311E+00 -0.3318070E-01  -0.8690192E-31 -0.1000000E+01  0.7029356E-15
  0.1001883E+00 -0.1735311E+00 -0.3318070E-01  -0.8690192E-31 -0.1000000E+01  0.7029356E-15
  0.1001883E+00 -0.1735311E+00  0.3318070E-01  -0.8690192E-31 -0.1000000E+01  0.7029356E-15
 -0.1001883E+00 -0.1735311E+00  0.3318070E-01  -0.8690192E-31 -0.1000000E+01  0.7029356E-15
           6
 -0.2003765E+00  0.3132414E-16 -0.3318070E-01   0.0000000E+00  0.0000000E+00 -0.1000000E+01
 -0.1001883E+00  0.1735311E+00 -0.3318070E-01   0.0000000E+00  0.0000000E+00 -0.1000000E+01
  0.1001883E+00  0.1735311E+00 -0.3318070E-01   0.0000000E+00  0.0000000E+00 -0.1000000E+01
  0.2003765E+00  0.3132414E-16 -0.3318070E-01   0.0000000E+00  0.0000000E+00 -0.1000000E+01
  0.1001883E+00 -0.1735311E+00 -0.3318070E-01   0.0000000E+00  0.0000000E+00 -0.1000000E+01
 -0.1001883E+00 -0.1735311E+00 -0.3318070E-01   0.0000000E+00  0.0000000E+00 -0.1000000E+01
           6
 -0.1001883E+00 -0.1735311E+00  0.3318070E-01  -0.0000000E+00  0.3741686E-16  0.1000000E+01
  0.1001883E+00 -0.1735311E+00  0.3318070E-01  -0.0000000E+00  0.3741686E-16  0.1000000E+01
  0.2003765E+00 -0.9788795E-17  0.3318070E-01  -0.0000000E+00  0.3741686E-16  0.1000000E+01
  0.1001883E+00  0.1735311E+00  0.3318070E-01  -0.0000000E+00  0.3741686E-16  0.1000000E+01
 -0.1001883E+00  0.1735311E+00  0.3318070E-01  -0.0000000E+00  0.3741686E-16  0.1000000E+01
 -0.2003765E+00 -0.0000000E+00  0.3318070E-01  -0.0000000E+00  0.3741686E-16  0.1000000E+01
           4
  0.1001883E+00  0.1735311E+00  0.3318070E-01  -0.2770342E-15  0.1000000E+01 -0.5218286E-15
  0.1001883E+00  0.1735311E+00 -0.3318070E-01  -0.2770342E-15  0.1000000E+01 -0.5218286E-15
 -0.1001883E+00  0.1735311E+00 -0.3318070E-01  -0.2770342E-15  0.1000000E+01 -0.5218286E-15
 -0.1001883E+00  0.1735311E+00  0.3318070E-01  -0.2770342E-15  0.1000000E+01 -0.5218286E-15
           4
  0.1001883E+00 -0.1735311E+00 -0.3318070E-01   0.8660254E+00 -0.5000000E+00  0.4720235E-15
  0.2003765E+00 -0.3132414E-16 -0.3318070E-01   0.8660254E+00 -0.5000000E+00  0.4720235E-15
  0.2003765E+00  0.3132414E-16  0.3318070E-01   0.8660254E+00 -0.5000000E+00  0.4720235E-15
  0.1001883E+00 -0.1735311E+00  0.3318070E-01   0.8660254E+00 -0.5000000E+00  0.4720235E-15
           4
  0.1001883E+00  0.1735311E+00  0.3318070E-01   0.8660254E+00  0.5000000E+00 -0.5982258E-15
  0.2003765E+00  0.0000000E+00  0.3318070E-01   0.8660254E+00  0.5000000E+00 -0.5982258E-15
  0.2003765E+00 -0.3132414E-16 -0.3318070E-01   0.8660254E+00  0.5000000E+00 -0.5982258E-15
  0.1001883E+00  0.1735311E+00 -0.3318070E-01   0.8660254E+00  0.5000000E+00 -0.5982258E-15
 BRILLOUIN-ZONE-PRIMCELL_END
 BRILLOUIN-ZONE-CONVCELL
           4
 -0.2003765E+00  0.3132414E-16 -0.3318070E-01  -0.8660254E+00 -0.5000000E+00 -0.0000000E+00
 -0.1001883E+00 -0.1735311E+00 -0.3318070E-01  -0.8660254E+00 -0.5000000E+00 -0.0000000E+00
 -0.1001883E+00 -0.1735311E+00  0.3318070E-01  -0.8660254E+00 -0.5000000E+00 -0.0000000E+00
 -0.2003765E+00  0.3132414E-16  0.3318070E-01  -0.8660254E+00 -0.5000000E+00 -0.0000000E+00
           4
 -0.1001883E+00  0.1735311E+00  0.3318070E-01  -0.8660254E+00  0.5000000E+00  0.2360118E-15
 -0.1001883E+00  0.1735311E+00 -0.3318070E-01  -0.8660254E+00  0.5000000E+00  0.2360118E-15
 -0.2003765E+00  0.3132414E-16 -0.3318070E-01  -0.8660254E+00  0.5000000E+00  0.2360118E-15
 -0.2003765E+00 -0.0000000E+00  0.3318070E-01  -0.8660254E+00  0.5000000E+00  0.2360118E-15
           4
 -0.1001883E+00 -0.1735311E+00 -0.3318070E-01  -0.8690192E-31 -0.1000000E+01  0.7029356E-15
  0.1001883E+00 -0.1735311E+00 -0.3318070E-01  -0.8690192E-31 -0.1000000E+01  0.7029356E-15
  0.1001883E+00 -0.1735311E+00  0.3318070E-01  -0.8690192E-31 -0.1000000E+01  0.7029356E-15
 -0.1001883E+00 -0.1735311E+00  0.3318070E-01  -0.8690192E-31 -0.1000000E+01  0.7029356E-15
           6
 -0.2003765E+00  0.3132414E-16 -0.3318070E-01   0.0000000E+00  0.0000000E+00 -0.1000000E+01
 -0.1001883E+00  0.1735311E+00 -0.3318070E-01   0.0000000E+00  0.0000000E+00 -0.1000000E+01
  0.1001883E+00  0.1735311E+00 -0.3318070E-01   0.0000000E+00  0.0000000E+00 -0.1000000E+01
  0.2003765E+00  0.3132414E-16 -0.3318070E-01   0.0000000E+00  0.0000000E+00 -0.1000000E+01
  0.1001883E+00 -0.1735311E+00 -0.3318070E-01   0.0000000E+00  0.0000000E+00 -0.1000000E+01
 -0.1001883E+00 -0.1735311E+00 -0.3318070E-01   0.0000000E+00  0.0000000E+00 -0.1000000E+01
           6
 -0.1001883E+00 -0.1735311E+00  0.3318070E-01  -0.0000000E+00  0.3741686E-16  0.1000000E+01
  0.1001883E+00 -0.1735311E+00  0.3318070E-01  -0.0000000E+00  0.3741686E-16  0.1000000E+01
  0.2003765E+00 -0.9788795E-17  0.3318070E-01  -0.0000000E+00  0.3741686E-16  0.1000000E+01
  0.1001883E+00  0.1735311E+00  0.3318070E-01  -0.0000000E+00  0.3741686E-16  0.1000000E+01
 -0.1001883E+00  0.1735311E+00  0.3318070E-01  -0.0000000E+00  0.3741686E-16  0.1000000E+01
 -0.2003765E+00 -0.0000000E+00  0.3318070E-01  -0.0000000E+00  0.3741686E-16  0.1000000E+01
           4
  0.1001883E+00  0.1735311E+00  0.3318070E-01  -0.2770342E-15  0.1000000E+01 -0.5218286E-15
  0.1001883E+00  0.1735311E+00 -0.3318070E-01  -0.2770342E-15  0.1000000E+01 -0.5218286E-15
 -0.1001883E+00  0.1735311E+00 -0.3318070E-01  -0.2770342E-15  0.1000000E+01 -0.5218286E-15
 -0.1001883E+00  0.1735311E+00  0.3318070E-01  -0.2770342E-15  0.1000000E+01 -0.5218286E-15
           4
  0.1001883E+00 -0.1735311E+00 -0.3318070E-01   0.8660254E+00 -0.5000000E+00  0.4720235E-15
  0.2003765E+00 -0.3132414E-16 -0.3318070E-01   0.8660254E+00 -0.5000000E+00  0.4720235E-15
  0.2003765E+00  0.3132414E-16  0.3318070E-01   0.8660254E+00 -0.5000000E+00  0.4720235E-15
  0.1001883E+00 -0.1735311E+00  0.3318070E-01   0.8660254E+00 -0.5000000E+00  0.4720235E-15
           4
  0.1001883E+00  0.1735311E+00  0.3318070E-01   0.8660254E+00  0.5000000E+00 -0.5982258E-15
  0.2003765E+00  0.0000000E+00  0.3318070E-01   0.8660254E+00  0.5000000E+00 -0.5982258E-15
  0.2003765E+00 -0.3132414E-16 -0.3318070E-01   0.8660254E+00  0.5000000E+00 -0.5982258E-15
  0.1001883E+00  0.1735311E+00 -0.3318070E-01   0.8660254E+00  0.5000000E+00 -0.5982258E-15
 BRILLOUIN-ZONE-CONVCELL_END
 ATOMS
   74    1.6635350000    0.9604420000    7.5478820000
   34    0.0000000000    1.9208840000    9.2291100000
   34    0.0000000000    1.9208840000    5.8666540000
 FRAMES
1      0.0000000000    0.0000000000    0.0000000000      3.3270700000    0.0000000000    0.0000000000
1      0.0000000000    0.0000000000    0.0000000000     -1.6635350000    2.8813271400    0.0000000000
1      0.0000000000    0.0000000000    0.0000000000      0.0000000000    0.0000000000   15.0690000000
1      0.0000000000    0.0000000000   15.0690000000      3.3270700000    0.0000000000   15.0690000000
1      0.0000000000    0.0000000000   15.0690000000     -1.6635350000    2.8813271400   15.0690000000
1     -1.6635350000    2.8813271400    0.0000000000      1.6635350000    2.8813271400    0.0000000000
1     -1.6635350000    2.8813271400    0.0000000000     -1.6635350000    2.8813271400   15.0690000000
1     -1.6635350000    2.8813271400   15.0690000000      1.6635350000    2.8813271400   15.0690000000
1      3.3270700000    0.0000000000    0.0000000000      1.6635350000    2.8813271400    0.0000000000
1      3.3270700000    0.0000000000    0.0000000000      3.3270700000    0.0000000000   15.0690000000
1      3.3270700000    0.0000000000   15.0690000000      1.6635350000    2.8813271400   15.0690000000
1      1.6635350000    2.8813271400    0.0000000000      1.6635350000    2.8813271400   15.0690000000
